* EQUIVALENT CIRCUIT FOR VECTOR FITTED S-MATRIX
* Created using scikit-rf vectorFitting.py

.SUBCKT s_equivalent p1 p2 p3 p4 p5 p6 p7 p8 p9 p10 p11 p12 p13 p14 p15 p16

* Port network for port 1
R_ref_1 p1 a1 50.0
H_b_1 a1 0 V_c_1 14.142135623730951
* Differential incident wave a sources for transfer from port 1
H_p_1 nt_p_1 nts_p_1 H_b_1 3.5355339059327378
E_p_1 nts_p_1 0 p1 0 0.07071067811865475
E_n_1 0 nt_n_1 nt_p_1 0 1
* Current sensor on center node for transfer to port 1
V_c_1 nt_c_1 0 0
* Transfer network from port 1 to port 1
R1_1 nt_n_1 nt_c_1 3.3538953868729466
X1 nt_n_1 nt_c_1 rl_admittance res=1.45964938772646 ind=1.2631917510792752e-07
X2 nt_n_1 nt_c_1 rl_admittance res=97.04923337939485 ind=3.709492363265409e-05
X3 nt_n_1 nt_c_1 rl_admittance res=156.76286526285634 ind=0.00013160461821518717
X4 nt_n_1 nt_c_1 rl_admittance res=98593.29832132184 ind=3.354489447716232
X5 nt_n_1 nt_c_1 rl_admittance res=43433.99187832574 ind=14.462142709271719
X6 nt_n_1 nt_c_1 rl_admittance res=96460.00022571992 ind=374.54047067144694
* Transfer network from port 2 to port 1
R1_2 nt_p_2 nt_c_1 3.04535568848627
X7 nt_n_2 nt_c_1 rl_admittance res=3.890226885181143 ind=3.366632118992503e-07
X8 nt_n_2 nt_c_1 rl_admittance res=15.556800013295938 ind=5.946242833322661e-06
X9 nt_n_2 nt_c_1 rl_admittance res=142.6789750493539 ind=0.00011978099537297462
X10 nt_n_2 nt_c_1 rl_admittance res=123182.490752719 ind=4.191099926758777
X11 nt_n_2 nt_c_1 rl_admittance res=218770.32854033847 ind=72.84358575117443
X12 nt_n_2 nt_c_1 rl_admittance res=131455.29545205724 ind=510.4222280287701
* Transfer network from port 3 to port 1
R1_3 nt_p_3 nt_c_1 3.7468572780454887
X13 nt_n_3 nt_c_1 rl_admittance res=5.8738739743108646 ind=5.083295491108174e-07
X14 nt_n_3 nt_c_1 rl_admittance res=11.748987951217044 ind=4.490790865988466e-06
X15 nt_n_3 nt_c_1 rl_admittance res=86.8935323427016 ind=7.294833588398205e-05
X16 nt_n_3 nt_c_1 rl_admittance res=160827.50178347682 ind=5.471915097890231
X17 nt_n_3 nt_c_1 rl_admittance res=238106.75289629676 ind=79.28200221785094
X18 nt_n_3 nt_c_1 rl_admittance res=155589.68917609687 ind=604.1326485514688
* Transfer network from port 4 to port 1
R1_4 nt_p_4 nt_c_1 104.83218887540028
X19 nt_n_4 nt_c_1 rl_admittance res=151.96444534335276 ind=1.3151119400944396e-05
X20 nt_n_4 nt_c_1 rl_admittance res=374.6272697225267 ind=0.00014319299057974163
X21 nt_n_4 nt_c_1 rl_admittance res=3472.890126522203 ind=0.002915539840624114
X22 nt_n_4 nt_c_1 rl_admittance res=3795013.215399337 ind=129.11964607890246
X23 nt_n_4 nt_c_1 rl_admittance res=2875139.713766742 ind=957.3304007163729
X24 nt_n_4 nt_c_1 rl_admittance res=2263859.7678959826 ind=8790.245708249848
* Transfer network from port 5 to port 1
R1_5 nt_n_5 nt_c_1 118.28462738406094
X25 nt_p_5 nt_c_1 rl_admittance res=13.144090082204471 ind=1.137499615105865e-06
X26 nt_n_5 nt_c_1 rl_admittance res=16.892890941189545 ind=6.456934048602453e-06
X27 nt_n_5 nt_c_1 rl_admittance res=118.79948443998401 ind=9.973382897581962e-05
X28 nt_n_5 nt_c_1 rl_admittance res=367603.2223521381 ind=12.507149586454757
X29 nt_n_5 nt_c_1 rl_admittance res=440708.42449020065 ind=146.7419376512824
X30 nt_n_5 nt_c_1 rl_admittance res=255377.69676949465 ind=991.595298810012
* Transfer network from port 6 to port 1
R1_6 nt_n_6 nt_c_1 72.4424575429028
X31 nt_p_6 nt_c_1 rl_admittance res=9.41410109333043 ind=8.147035133857723e-07
X32 nt_n_6 nt_c_1 rl_admittance res=12.391557828840648 ind=4.736398994039401e-06
X33 nt_n_6 nt_c_1 rl_admittance res=85.4166426703992 ind=7.170846634508708e-05
X34 nt_n_6 nt_c_1 rl_admittance res=410011.9842928285 ind=13.950044254174687
X35 nt_n_6 nt_c_1 rl_admittance res=425814.2983657512 ind=141.78266570259538
X36 nt_n_6 nt_c_1 rl_admittance res=360779.9113655659 ind=1400.8571168926042
* Transfer network from port 7 to port 1
R1_7 nt_n_7 nt_c_1 19.32184401174557
X37 nt_p_7 nt_c_1 rl_admittance res=19.062468382868545 ind=1.6496806026791944e-06
X38 nt_n_7 nt_c_1 rl_admittance res=812.0827452998913 ind=0.0003104006736717964
X39 nt_p_7 nt_c_1 rl_admittance res=1880.9015478254692 ind=0.001579043159787007
X40 nt_n_7 nt_c_1 rl_admittance res=8046482.837065925 ind=273.76953837368626
X41 nt_n_7 nt_c_1 rl_admittance res=482467.5676880792 ind=160.64640883220562
X42 nt_n_7 nt_c_1 rl_admittance res=458928.0249469587 ind=1781.9522917865365
* Transfer network from port 8 to port 1
R1_8 nt_n_8 nt_c_1 19.541781356082872
X43 nt_p_8 nt_c_1 rl_admittance res=23.42460092594991 ind=2.027182891370419e-06
X44 nt_p_8 nt_c_1 rl_admittance res=130.9258707039883 ind=5.004351921376788e-05
X45 nt_p_8 nt_c_1 rl_admittance res=1188.2518981292008 ind=0.000997554089959708
X46 nt_p_8 nt_c_1 rl_admittance res=1127595.3192525695 ind=38.36474348793495
X47 nt_p_8 nt_c_1 rl_admittance res=1485600.361447964 ind=494.6578361112475
X48 nt_p_8 nt_c_1 rl_admittance res=1068160.4101846123 ind=4147.515051285234
* Transfer network from port 9 to port 1
R1_9 nt_p_9 nt_c_1 3.6593086227110105
X49 nt_n_9 nt_c_1 rl_admittance res=6.087700052321488 ind=5.268342215465292e-07
X50 nt_n_9 nt_c_1 rl_admittance res=9.196197459124047 ind=3.515043144374205e-06
X51 nt_n_9 nt_c_1 rl_admittance res=3606.029838037951 ind=0.003027312490823701
X52 nt_n_9 nt_c_1 rl_admittance res=69408.93779538703 ind=2.361535250124256
X53 nt_p_9 nt_c_1 rl_admittance res=64112.16738603606 ind=21.347319784352056
X54 nt_p_9 nt_c_1 rl_admittance res=145905.29921946052 ind=566.529538826851
* Transfer network from port 10 to port 1
R1_10 nt_n_10 nt_c_1 27.779334279237776
X55 nt_p_10 nt_c_1 rl_admittance res=11.057129775619096 ind=9.56892472988353e-07
X56 nt_n_10 nt_c_1 rl_admittance res=24.818858743866798 ind=9.486459992468504e-06
X57 nt_n_10 nt_c_1 rl_admittance res=70.6385066266567 ind=5.930201441715304e-05
X58 nt_p_10 nt_c_1 rl_admittance res=126073.39196982291 ind=4.2894585149415185
X59 nt_n_10 nt_c_1 rl_admittance res=688192.2608582126 ind=229.146211470247
X60 nt_p_10 nt_c_1 rl_admittance res=1372856.488670801 ind=5330.606616503086
* Transfer network from port 11 to port 1
R1_11 nt_n_11 nt_c_1 9.441305131939423
X61 nt_p_11 nt_c_1 rl_admittance res=3.840528296153842 ind=3.323622579696666e-07
X62 nt_n_11 nt_c_1 rl_admittance res=7.976722440445454 ind=3.0489257819323063e-06
X63 nt_n_11 nt_c_1 rl_admittance res=34.36928782248356 ind=2.885349789072499e-05
X64 nt_p_11 nt_c_1 rl_admittance res=112606.84585999754 ind=3.8312794338910976
X65 nt_n_11 nt_c_1 rl_admittance res=152717.6382835292 ind=50.85013335330747
X66 nt_n_11 nt_c_1 rl_admittance res=208977.02152921798 ind=811.4280719460389
* Transfer network from port 12 to port 1
R1_12 nt_n_12 nt_c_1 35.475285257405694
X67 nt_p_12 nt_c_1 rl_admittance res=35.18941251886594 ind=3.045318690428376e-06
X68 nt_p_12 nt_c_1 rl_admittance res=108.33297878176782 ind=4.140788582118599e-05
X69 nt_n_12 nt_c_1 rl_admittance res=105.57687830291475 ind=8.863326616356852e-05
X70 nt_p_12 nt_c_1 rl_admittance res=130590.46163898426 ind=4.4431450514281865
X71 nt_p_12 nt_c_1 rl_admittance res=750538.9788218441 ind=249.9056925506563
X72 nt_p_12 nt_c_1 rl_admittance res=348752.73241566 ind=1354.157290496104
* Transfer network from port 13 to port 1
R1_13 nt_n_13 nt_c_1 10.381819560422521
X73 nt_p_13 nt_c_1 rl_admittance res=6.18153988715201 ind=5.349551926699571e-07
X74 nt_n_13 nt_c_1 rl_admittance res=21.27203108582901 ind=8.130763543030797e-06
X75 nt_n_13 nt_c_1 rl_admittance res=54.23247325349471 ind=4.55289199098521e-05
X76 nt_p_13 nt_c_1 rl_admittance res=137760.84377072466 ind=4.687106574235001
X77 nt_n_13 nt_c_1 rl_admittance res=239930.54276114868 ind=79.88926644010112
X78 nt_n_13 nt_c_1 rl_admittance res=308536.0420218997 ind=1198.001597839258
* Transfer network from port 14 to port 1
R1_14 nt_n_14 nt_c_1 9.883312889626678
X79 nt_p_14 nt_c_1 rl_admittance res=6.230479595823449 ind=5.391904725127606e-07
X80 nt_n_14 nt_c_1 rl_admittance res=45.945464466382624 ind=1.7561637905829617e-05
X81 nt_n_14 nt_c_1 rl_admittance res=26.62259521759772 ind=2.235004108680054e-05
X82 nt_p_14 nt_c_1 rl_admittance res=79125.60781692133 ind=2.692130408305799
X83 nt_n_14 nt_c_1 rl_admittance res=192515.04671157672 ind=64.10140903061422
X84 nt_n_14 nt_c_1 rl_admittance res=1109779.0980220176 ind=4309.11450074484
* Transfer network from port 15 to port 1
R1_15 nt_p_15 nt_c_1 33.871040684297164
X85 nt_n_15 nt_c_1 rl_admittance res=49.134056432357596 ind=4.252098846771065e-06
X86 nt_n_15 nt_c_1 rl_admittance res=119.04611850056165 ind=4.550274660366163e-05
X87 nt_n_15 nt_c_1 rl_admittance res=1299.6670614868272 ind=0.0010910886780936832
X88 nt_n_15 nt_c_1 rl_admittance res=1780459.8784894925 ind=60.577483218081
X89 nt_n_15 nt_c_1 rl_admittance res=2283776.6032266147 ind=760.4252274228742
X90 nt_n_15 nt_c_1 rl_admittance res=1420993.6451905037 ind=5517.516353362771
* Transfer network from port 16 to port 1
R1_16 nt_n_16 nt_c_1 21.51831288318973
X91 nt_p_16 nt_c_1 rl_admittance res=22.481867549072497 ind=1.9455980234458334e-06
X92 nt_p_16 nt_c_1 rl_admittance res=572.7259208389377 ind=0.00021891181986886872
X93 nt_p_16 nt_c_1 rl_admittance res=4032.6856870689953 ind=0.0033854960442236486
X94 nt_p_16 nt_c_1 rl_admittance res=1289360.3371579263 ind=43.86855616904287
X95 nt_n_16 nt_c_1 rl_admittance res=679040.5270440491 ind=226.09897416292165
X96 nt_n_16 nt_c_1 rl_admittance res=647541.2125378067 ind=2514.3104909344765

* Port network for port 2
R_ref_2 p2 a2 50.0
H_b_2 a2 0 V_c_2 14.142135623730951
* Differential incident wave a sources for transfer from port 2
H_p_2 nt_p_2 nts_p_2 H_b_2 3.5355339059327378
E_p_2 nts_p_2 0 p2 0 0.07071067811865475
E_n_2 0 nt_n_2 nt_p_2 0 1
* Current sensor on center node for transfer to port 2
V_c_2 nt_c_2 0 0
* Transfer network from port 1 to port 2
R2_1 nt_p_1 nt_c_2 3.0459632642509558
X97 nt_n_1 nt_c_2 rl_admittance res=3.891160608981584 ind=3.3674401707153495e-07
X98 nt_n_1 nt_c_2 rl_admittance res=15.557578119066607 ind=5.946540247049035e-06
X99 nt_n_1 nt_c_2 rl_admittance res=142.69161124749976 ind=0.00011979160363807547
X100 nt_n_1 nt_c_2 rl_admittance res=123095.32526051851 ind=4.1881342513146045
X101 nt_n_1 nt_c_2 rl_admittance res=218193.8420963729 ind=72.65163403635286
X102 nt_n_1 nt_c_2 rl_admittance res=131460.30914343148 ind=510.4416954797625
* Transfer network from port 2 to port 2
R2_2 nt_p_2 nt_c_2 10.547077834513692
X103 nt_n_2 nt_c_2 rl_admittance res=0.9959152140699346 ind=8.618726481617573e-08
X104 nt_n_2 nt_c_2 rl_admittance res=14.04769036000861 ind=5.369419035826493e-06
X105 nt_n_2 nt_c_2 rl_admittance res=51.38413140465554 ind=4.313769708463599e-05
X106 nt_n_2 nt_c_2 rl_admittance res=35496.2449084822 ind=1.2077066190745749
X107 nt_n_2 nt_c_2 rl_admittance res=86487.14065893825 ind=28.79747673735201
X108 nt_n_2 nt_c_2 rl_admittance res=96490.74679408413 ind=374.65985522628534
* Transfer network from port 3 to port 2
R2_3 nt_p_3 nt_c_2 2.4303192640517604
X109 nt_n_3 nt_c_2 rl_admittance res=4.358815392227141 ind=3.772152199176296e-07
X110 nt_n_3 nt_c_2 rl_admittance res=6.301778507515917 ind=2.40871549775514e-06
X111 nt_n_3 nt_c_2 rl_admittance res=42.87360590720301 ind=3.599299188277058e-05
X112 nt_n_3 nt_c_2 rl_admittance res=69271.62766784166 ind=2.3568634784951707
X113 nt_n_3 nt_c_2 rl_admittance res=77608.01340632667 ind=25.841008775098423
X114 nt_n_3 nt_c_2 rl_admittance res=177916.2399411782 ind=690.8234718197217
* Transfer network from port 4 to port 2
R2_4 nt_p_4 nt_c_2 23.62682158408959
X115 nt_n_4 nt_c_2 rl_admittance res=25.63701338380255 ind=2.218646758669229e-06
X116 nt_n_4 nt_c_2 rl_admittance res=407.0640525952719 ind=0.0001555912336328283
X117 nt_n_4 nt_c_2 rl_admittance res=1163.5014053349926 ind=0.0009767757050446468
X118 nt_n_4 nt_c_2 rl_admittance res=986425.272266861 ind=33.56164387558785
X119 nt_n_4 nt_c_2 rl_admittance res=1357221.0009934541 ind=451.91157790363724
X120 nt_n_4 nt_c_2 rl_admittance res=2282964.571808527 ind=8864.42694640811
* Transfer network from port 5 to port 2
R2_5 nt_p_5 nt_c_2 4.764331586940668
X121 nt_n_5 nt_c_2 rl_admittance res=12.247247841373966 ind=1.0598862012160324e-06
X122 nt_n_5 nt_c_2 rl_admittance res=9.028305687492924 ind=3.450870226873037e-06
X123 nt_n_5 nt_c_2 rl_admittance res=57.29027780186463 ind=4.809598960132601e-05
X124 nt_n_5 nt_c_2 rl_admittance res=109867.40069563875 ind=3.738073911275454
X125 nt_n_5 nt_c_2 rl_admittance res=116243.06957137742 ind=38.70525798813277
X126 nt_n_5 nt_c_2 rl_admittance res=317364.36406443873 ind=1232.280717529432
* Transfer network from port 6 to port 2
R2_6 nt_p_6 nt_c_2 27.41678864800031
X127 nt_p_6 nt_c_2 rl_admittance res=7.038230495170693 ind=6.090938535275389e-07
X128 nt_n_6 nt_c_2 rl_admittance res=6.468039465332147 ind=2.4722650727340027e-06
X129 nt_n_6 nt_c_2 rl_admittance res=41.79970755927321 ind=3.50914391978012e-05
X130 nt_n_6 nt_c_2 rl_admittance res=111927.47364527665 ind=3.8081648108471904
X131 nt_n_6 nt_c_2 rl_admittance res=108481.62665375565 ind=36.120943485819545
X132 nt_n_6 nt_c_2 rl_admittance res=389505.59130756935 ind=1512.3948492237157
* Transfer network from port 7 to port 2
R2_7 nt_p_7 nt_c_2 20.87333111550723
X133 nt_n_7 nt_c_2 rl_admittance res=19.050606274185977 ind=1.6486540467155348e-06
X134 nt_p_7 nt_c_2 rl_admittance res=236.66647763376977 ind=9.046052821369201e-05
X135 nt_p_7 nt_c_2 rl_admittance res=2754.1525771260503 ind=0.0023121496140765516
X136 nt_n_7 nt_c_2 rl_admittance res=2234296.2698296495 ind=76.01858734646311
X137 nt_n_7 nt_c_2 rl_admittance res=407235.74176222284 ind=135.5965951778047
X138 nt_n_7 nt_c_2 rl_admittance res=583160.919241952 ind=2264.33096266815
* Transfer network from port 8 to port 2
R2_8 nt_n_8 nt_c_2 11.818035012867325
X139 nt_p_8 nt_c_2 rl_admittance res=14.192755510492825 ind=1.2282519238311235e-06
X140 nt_p_8 nt_c_2 rl_admittance res=80.97888330604401 ind=3.0952387643827476e-05
X141 nt_p_8 nt_c_2 rl_admittance res=553.8612414283433 ind=0.00046497425968927854
X142 nt_p_8 nt_c_2 rl_admittance res=873641.6579781636 ind=29.72435016041334
X143 nt_p_8 nt_c_2 rl_admittance res=708360.9926404782 ind=235.86175993093786
X144 nt_p_8 nt_c_2 rl_admittance res=1389123.4431879479 ind=5393.768888812709
* Transfer network from port 9 to port 2
R2_9 nt_p_9 nt_c_2 15.97805614500749
X145 nt_p_9 nt_c_2 rl_admittance res=18.232531167263488 ind=1.5778572008759061e-06
X146 nt_n_9 nt_c_2 rl_admittance res=9.049367368252575 ind=3.45892058865488e-06
X147 nt_n_9 nt_c_2 rl_admittance res=144.0664498815522 ind=0.0001209457999028514
X148 nt_n_9 nt_c_2 rl_admittance res=405872.62136569957 ind=13.809208624413442
X149 nt_p_9 nt_c_2 rl_admittance res=79091.84697236569 ind=26.335078324334873
X150 nt_p_9 nt_c_2 rl_admittance res=307734.6030500345 ind=1194.8897242228943
* Transfer network from port 10 to port 2
R2_10 nt_n_10 nt_c_2 15.886289433200446
X151 nt_p_10 nt_c_2 rl_admittance res=5.04213529631103 ind=4.3635024737319606e-07
X152 nt_n_10 nt_c_2 rl_admittance res=9.471133353361333 ind=3.620131310920948e-06
X153 nt_n_10 nt_c_2 rl_admittance res=33.533537211682095 ind=2.8151873562328023e-05
X154 nt_p_10 nt_c_2 rl_admittance res=44355.43862629073 ind=1.5091274290855106
X155 nt_n_10 nt_c_2 rl_admittance res=207245.5307931308 ind=69.00619336544754
X156 nt_p_10 nt_c_2 rl_admittance res=171075.74787866502 ind=664.2628134045992
* Transfer network from port 11 to port 2
R2_11 nt_n_11 nt_c_2 5.08885160491587
X157 nt_p_11 nt_c_2 rl_admittance res=2.1172844080427162 ind=1.8323141306517206e-07
X158 nt_n_11 nt_c_2 rl_admittance res=4.56471672834201 ind=1.7447620403202131e-06
X159 nt_n_11 nt_c_2 rl_admittance res=17.630816473539628 ind=1.4801317052553205e-05
X160 nt_p_11 nt_c_2 rl_admittance res=70816.65103708635 ind=2.4094305867758505
X161 nt_n_11 nt_c_2 rl_admittance res=61235.428696440846 ind=20.389456975362346
X162 nt_n_11 nt_c_2 rl_admittance res=505663.15993938426 ind=1963.4181783301424
* Transfer network from port 12 to port 2
R2_12 nt_n_12 nt_c_2 28.445072999519315
X163 nt_p_12 nt_c_2 rl_admittance res=9.614975494474253 ind=8.320873377932963e-07
X164 nt_n_12 nt_c_2 rl_admittance res=20.7345115521193 ind=7.925308586204161e-06
X165 nt_n_12 nt_c_2 rl_admittance res=48.43972777913935 ind=4.06658290541702e-05
X166 nt_p_12 nt_c_2 rl_admittance res=48611.7941904336 ind=1.6539435582620894
X167 nt_n_12 nt_c_2 rl_admittance res=312838.9908346948 ind=104.16546890624653
X168 nt_p_12 nt_c_2 rl_admittance res=152750.66960235516 ind=593.1091390666414
* Transfer network from port 13 to port 2
R2_13 nt_n_13 nt_c_2 7.615794489258782
X169 nt_p_13 nt_c_2 rl_admittance res=3.1942387910154375 ind=2.764318695788258e-07
X170 nt_n_13 nt_c_2 rl_admittance res=6.80075102696094 ind=2.59943671068062e-06
X171 nt_n_13 nt_c_2 rl_admittance res=28.811968541817745 ind=2.41880506178292e-05
X172 nt_p_13 nt_c_2 rl_admittance res=161361.48868053601 ind=5.490083203044457
X173 nt_n_13 nt_c_2 rl_admittance res=92408.64183430134 ind=30.769148954152225
X174 nt_n_13 nt_c_2 rl_admittance res=461145.22572863864 ind=1790.5613672831182
* Transfer network from port 14 to port 2
R2_14 nt_n_14 nt_c_2 4.986207686124209
X175 nt_p_14 nt_c_2 rl_admittance res=2.9530196325851725 ind=2.5555657899921583e-07
X176 nt_n_14 nt_c_2 rl_admittance res=15.336592563330665 ind=5.862073404514606e-06
X177 nt_n_14 nt_c_2 rl_admittance res=13.719181090274752 ind=1.151744443164643e-05
X178 nt_p_14 nt_c_2 rl_admittance res=42884.06537149832 ind=1.4590661557445253
X179 nt_n_14 nt_c_2 rl_admittance res=71759.09996603894 ind=23.893505973500552
X180 nt_p_14 nt_c_2 rl_admittance res=515886.0494190054 ind=2003.112205163646
* Transfer network from port 15 to port 2
R2_15 nt_p_15 nt_c_2 16.765557547591367
X181 nt_n_15 nt_c_2 rl_admittance res=22.766310346178468 ind=1.9702139207962125e-06
X182 nt_n_15 nt_c_2 rl_admittance res=71.24114694686011 ind=2.7230353228710304e-05
X183 nt_n_15 nt_c_2 rl_admittance res=594.4491221255431 ind=0.000499048353285118
X184 nt_n_15 nt_c_2 rl_admittance res=1172655.410415944 ind=39.897845665205175
X185 nt_n_15 nt_c_2 rl_admittance res=955464.5948497324 ind=318.13942782608365
X186 nt_n_15 nt_c_2 rl_admittance res=1797455.8436076015 ind=6979.265561896895
* Transfer network from port 16 to port 2
R2_16 nt_p_16 nt_c_2 25.04545146746992
X187 nt_n_16 nt_c_2 rl_admittance res=23.081041510596485 ind=1.9974509966339695e-06
X188 nt_p_16 nt_c_2 rl_admittance res=337.31708248777767 ind=0.00012893199646366765
X189 nt_p_16 nt_c_2 rl_admittance res=2289.655141775008 ind=0.0019221975196260827
X190 nt_n_16 nt_c_2 rl_admittance res=4121930.7185884365 ind=140.24252494991404
X191 nt_n_16 nt_c_2 rl_admittance res=609282.1297040049 ind=202.8716387541025
X192 nt_n_16 nt_c_2 rl_admittance res=798477.1745790045 ind=3100.3733784720234

* Port network for port 3
R_ref_3 p3 a3 50.0
H_b_3 a3 0 V_c_3 14.142135623730951
* Differential incident wave a sources for transfer from port 3
H_p_3 nt_p_3 nts_p_3 H_b_3 3.5355339059327378
E_p_3 nts_p_3 0 p3 0 0.07071067811865475
E_n_3 0 nt_n_3 nt_p_3 0 1
* Current sensor on center node for transfer to port 3
V_c_3 nt_c_3 0 0
* Transfer network from port 1 to port 3
R3_1 nt_p_1 nt_c_3 3.7477069562817946
X193 nt_n_1 nt_c_3 rl_admittance res=5.876630121482709 ind=5.085680681963944e-07
X194 nt_n_1 nt_c_3 rl_admittance res=11.74556966628553 ind=4.489484302154072e-06
X195 nt_n_1 nt_c_3 rl_admittance res=86.93474902338654 ind=7.298293786396336e-05
X196 nt_n_1 nt_c_3 rl_admittance res=160462.59147975393 ind=5.459499570830653
X197 nt_n_1 nt_c_3 rl_admittance res=237715.27374737817 ind=79.15165206870451
X198 nt_n_1 nt_c_3 rl_admittance res=155584.19795165982 ind=604.1113269074672
* Transfer network from port 2 to port 3
R3_2 nt_p_2 nt_c_3 2.430422664037426
X199 nt_n_2 nt_c_3 rl_admittance res=4.359519007997623 ind=3.7727611136489595e-07
X200 nt_n_2 nt_c_3 rl_admittance res=6.300975626217561 ind=2.408408614131112e-06
X201 nt_n_2 nt_c_3 rl_admittance res=42.87494365312972 ind=3.599411493918868e-05
X202 nt_n_2 nt_c_3 rl_admittance res=69139.254110763 ind=2.3523596662894986
X203 nt_n_2 nt_c_3 rl_admittance res=77540.27962727332 ind=25.818455573411324
X204 nt_n_2 nt_c_3 rl_admittance res=178176.70246831203 ind=691.8348107921112
* Transfer network from port 3 to port 3
R3_3 nt_n_3 nt_c_3 25.66832607310577
X205 nt_n_3 nt_c_3 rl_admittance res=1.377549342017757 ind=1.1921417431975877e-07
X206 nt_n_3 nt_c_3 rl_admittance res=5.129755217500754 ind=1.960735509403834e-06
X207 nt_n_3 nt_c_3 rl_admittance res=24.92395384392499 ind=2.0924007892702698e-05
X208 nt_n_3 nt_c_3 rl_admittance res=106836.08149401577 ind=3.6349378112804627
X209 nt_n_3 nt_c_3 rl_admittance res=32077.282430323983 ind=10.680718399831367
X210 nt_n_3 nt_c_3 rl_admittance res=840746.405387372 ind=3264.498793823875
* Transfer network from port 4 to port 3
R3_4 nt_p_4 nt_c_3 58.14197094625899
X211 nt_n_4 nt_c_3 rl_admittance res=100.28689092239807 ind=8.678904291658604e-06
X212 nt_n_4 nt_c_3 rl_admittance res=161.13970565392353 ind=6.159208957429814e-05
X213 nt_n_4 nt_c_3 rl_admittance res=980.3299068070418 ind=0.0008230006697947235
X214 nt_n_4 nt_c_3 rl_admittance res=1686409.9872590562 ind=57.37757639821625
X215 nt_n_4 nt_c_3 rl_admittance res=1234261.9189744375 ind=410.9701006260803
X216 nt_n_4 nt_c_3 rl_admittance res=3133546.514975063 ind=12167.115735468296
* Transfer network from port 5 to port 3
R3_5 nt_p_5 nt_c_3 3.4387886474355525
X217 nt_n_5 nt_c_3 rl_admittance res=9.954521371370433 ind=8.61471897840028e-07
X218 nt_n_5 nt_c_3 rl_admittance res=6.132383460666117 ind=2.343967986540102e-06
X219 nt_n_5 nt_c_3 rl_admittance res=36.693875370882786 ind=3.0805021654352865e-05
X220 nt_n_5 nt_c_3 rl_admittance res=166750.88875675265 ind=5.673449476340946
X221 nt_n_5 nt_c_3 rl_admittance res=77587.20783582964 ind=25.834081179529527
X222 nt_n_5 nt_c_3 rl_admittance res=12669901.122960567 ind=49195.425242068806
* Transfer network from port 6 to port 3
R3_6 nt_p_6 nt_c_3 2.143972863532729
X223 nt_n_6 nt_c_3 rl_admittance res=4.952253487299445 ind=4.2857180683328234e-07
X224 nt_n_6 nt_c_3 rl_admittance res=4.411422901542063 ind=1.6861688644599632e-06
X225 nt_n_6 nt_c_3 rl_admittance res=26.470803765192514 ind=2.2222610039220363e-05
X226 nt_n_6 nt_c_3 rl_admittance res=125398.83088386382 ind=4.266507583354717
X227 nt_n_6 nt_c_3 rl_admittance res=55755.177682745074 ind=18.564707077523703
X228 nt_n_6 nt_c_3 rl_admittance res=1466232.611875731 ind=5693.172831025282
* Transfer network from port 7 to port 3
R3_7 nt_p_7 nt_c_3 68.68441776074182
X229 nt_n_7 nt_c_3 rl_admittance res=44.99968957199832 ind=3.8943075745754935e-06
X230 nt_p_7 nt_c_3 rl_admittance res=141.26598878729695 ind=5.3995800723849314e-05
X231 nt_p_7 nt_c_3 rl_admittance res=1698.321513691626 ind=0.001425764667169447
X232 nt_n_7 nt_c_3 rl_admittance res=3357374.4673783123 ind=114.22964252750704
X233 nt_n_7 nt_c_3 rl_admittance res=382401.33465908497 ind=127.32752470802461
X234 nt_n_7 nt_c_3 rl_admittance res=612202.0467965793 ind=2377.0935332433814
* Transfer network from port 8 to port 3
R3_8 nt_n_8 nt_c_3 9.86146615374017
X235 nt_p_8 nt_c_3 rl_admittance res=11.971011230542697 ind=1.0359804735061978e-06
X236 nt_p_8 nt_c_3 rl_admittance res=67.66036540496299 ind=2.5861678657911547e-05
X237 nt_p_8 nt_c_3 rl_admittance res=323.8914914078031 ind=0.00027191143768900793
X238 nt_p_8 nt_c_3 rl_admittance res=15861936.267292377 ind=539.6786468748529
X239 nt_p_8 nt_c_3 rl_admittance res=573730.5298702467 ind=191.03408277308517
X240 nt_p_8 nt_c_3 rl_admittance res=2269427.5789081175 ind=8811.864727037064
* Transfer network from port 9 to port 3
R3_9 nt_p_9 nt_c_3 78.04059741568346
X241 nt_p_9 nt_c_3 rl_admittance res=8.017297084550295 ind=6.938230254684789e-07
X242 nt_n_9 nt_c_3 rl_admittance res=8.051126868427417 ind=3.0773652293943226e-06
X243 nt_n_9 nt_c_3 rl_admittance res=74.89463281686152 ind=6.287509188928497e-05
X244 nt_p_9 nt_c_3 rl_admittance res=964942.2614279041 ind=32.830716577369344
X245 nt_p_9 nt_c_3 rl_admittance res=100443.12703111836 ind=33.44437788170292
X246 nt_p_9 nt_c_3 rl_admittance res=309456.8551674694 ind=1201.5769844050374
* Transfer network from port 10 to port 3
R3_10 nt_n_10 nt_c_3 8.955946579790604
X247 nt_p_10 nt_c_3 rl_admittance res=3.9602604848515797 ind=3.427239732126146e-07
X248 nt_n_10 nt_c_3 rl_admittance res=10.3510933026279 ind=3.956476544996418e-06
X249 nt_n_10 nt_c_3 rl_admittance res=22.591593764153497 ind=1.896595898026425e-05
X250 nt_p_10 nt_c_3 rl_admittance res=41528.85586733179 ind=1.4129571801998024
X251 nt_n_10 nt_c_3 rl_admittance res=136868.30697107635 ind=45.57280835105263
X252 nt_p_10 nt_c_3 rl_admittance res=212971.89771608185 ind=826.9396083735828
* Transfer network from port 11 to port 3
R3_11 nt_n_11 nt_c_3 4.350747034120452
X253 nt_p_11 nt_c_3 rl_admittance res=1.5686486388540355 ind=1.3575205371945707e-07
X254 nt_n_11 nt_c_3 rl_admittance res=3.1235092489064096 ind=1.193892347414177e-06
X255 nt_n_11 nt_c_3 rl_admittance res=11.428339408024726 ind=9.59425079469403e-06
X256 nt_p_11 nt_c_3 rl_admittance res=36658.20147561181 ind=1.2472404526059149
X257 nt_n_11 nt_c_3 rl_admittance res=45944.223644443206 ind=15.297970328723247
X258 nt_p_11 nt_c_3 rl_admittance res=287049.66485193494 ind=1114.573049223963
* Transfer network from port 12 to port 3
R3_12 nt_n_12 nt_c_3 14.329935290849065
X259 nt_p_12 nt_c_3 rl_admittance res=6.941107644376695 ind=6.006887676900847e-07
X260 nt_n_12 nt_c_3 rl_admittance res=22.825842368591946 ind=8.724673550009635e-06
X261 nt_n_12 nt_c_3 rl_admittance res=32.79078275024567 ind=2.7528320802169786e-05
X262 nt_p_12 nt_c_3 rl_admittance res=48998.60200807713 ind=1.667104115467008
X263 nt_n_12 nt_c_3 rl_admittance res=201841.35370529987 ind=67.20677367385368
X264 nt_p_12 nt_c_3 rl_admittance res=179535.69725261704 ind=697.1115943807756
* Transfer network from port 13 to port 3
R3_13 nt_n_13 nt_c_3 5.295425811639192
X265 nt_p_13 nt_c_3 rl_admittance res=2.1848355737144547 ind=1.8907734264044075e-07
X266 nt_n_13 nt_c_3 rl_admittance res=4.644355181342315 ind=1.7752020781175263e-06
X267 nt_n_13 nt_c_3 rl_admittance res=18.676046118047125 ind=1.5678801959976608e-05
X268 nt_p_13 nt_c_3 rl_admittance res=61739.41612811955 ind=2.1005912514963496
X269 nt_n_13 nt_c_3 rl_admittance res=60110.53064906304 ind=20.01490157782641
X270 nt_p_13 nt_c_3 rl_admittance res=454963.09683712537 ind=1766.557039485475
* Transfer network from port 14 to port 3
R3_14 nt_n_14 nt_c_3 3.61445940214726
X271 nt_p_14 nt_c_3 rl_admittance res=1.7631872250906881 ind=1.5258757185600945e-07
X272 nt_n_14 nt_c_3 rl_admittance res=5.804323898047694 ind=2.218574472356238e-06
X273 nt_n_14 nt_c_3 rl_admittance res=8.458098461044234 ind=7.100691971441877e-06
X274 nt_p_14 nt_c_3 rl_admittance res=24688.618191683723 ind=0.8399932917629945
X275 nt_n_14 nt_c_3 rl_admittance res=48594.04701959694 ind=16.180277529801874
X276 nt_p_14 nt_c_3 rl_admittance res=136182.73882197312 ind=528.7782187057098
* Transfer network from port 15 to port 3
R3_15 nt_p_15 nt_c_3 13.841830535471285
X277 nt_n_15 nt_c_3 rl_admittance res=19.3439199607582 ind=1.6740376376293629e-06
X278 nt_n_15 nt_c_3 rl_admittance res=56.58828397412394 ind=2.162962034245963e-05
X279 nt_n_15 nt_c_3 rl_admittance res=347.7374320746704 ind=0.0002919304384401294
X280 nt_n_15 nt_c_3 rl_admittance res=25342963.830817945 ind=862.2564230204686
X281 nt_n_15 nt_c_3 rl_admittance res=751867.3904251931 ind=250.34801151222229
X282 nt_n_15 nt_c_3 rl_admittance res=3061084.728736773 ind=11885.756918758007
* Transfer network from port 16 to port 3
R3_16 nt_p_16 nt_c_3 77.84059267115276
X283 nt_n_16 nt_c_3 rl_admittance res=49.82530037083787 ind=4.31191962622769e-06
X284 nt_p_16 nt_c_3 rl_admittance res=149.87652138215964 ind=5.728698642332055e-05
X285 nt_p_16 nt_c_3 rl_admittance res=1804.4449494163216 ind=0.0015148567759339438
X286 nt_p_16 nt_c_3 rl_admittance res=26626200.41680947 ind=905.9166277191996
X287 nt_n_16 nt_c_3 rl_admittance res=529213.382441097 ind=176.21128359465362
X288 nt_n_16 nt_c_3 rl_admittance res=873077.5224044587 ind=3390.0359258638614

* Port network for port 4
R_ref_4 p4 a4 50.0
H_b_4 a4 0 V_c_4 14.142135623730951
* Differential incident wave a sources for transfer from port 4
H_p_4 nt_p_4 nts_p_4 H_b_4 3.5355339059327378
E_p_4 nts_p_4 0 p4 0 0.07071067811865475
E_n_4 0 nt_n_4 nt_p_4 0 1
* Current sensor on center node for transfer to port 4
V_c_4 nt_c_4 0 0
* Transfer network from port 1 to port 4
R4_1 nt_p_1 nt_c_4 104.92271009138472
X289 nt_n_1 nt_c_4 rl_admittance res=151.689792735052 ind=1.3127350754025815e-05
X290 nt_n_1 nt_c_4 rl_admittance res=376.9008514385278 ind=0.00014406201692019667
X291 nt_n_1 nt_c_4 rl_admittance res=3503.811993561024 ind=0.0029414991805438153
X292 nt_n_1 nt_c_4 rl_admittance res=3780203.6691223616 ind=128.61577342673016
X293 nt_n_1 nt_c_4 rl_admittance res=2871315.337146685 ind=956.0570045107419
X294 nt_n_1 nt_c_4 rl_admittance res=2261745.7705444037 ind=8782.037357003675
* Transfer network from port 2 to port 4
R4_2 nt_p_2 nt_c_4 23.62174302618051
X295 nt_n_2 nt_c_4 rl_admittance res=25.609697935323226 ind=2.216282858852859e-06
X296 nt_n_2 nt_c_4 rl_admittance res=411.19346952586966 ind=0.0001571696119502446
X297 nt_n_2 nt_c_4 rl_admittance res=1171.2783501170177 ind=0.0009833045589744526
X298 nt_n_2 nt_c_4 rl_admittance res=983810.7750794349 ind=33.47268952092449
X299 nt_n_2 nt_c_4 rl_admittance res=1360245.8487865755 ind=452.9187563499678
X300 nt_n_2 nt_c_4 rl_admittance res=2278971.034802346 ind=8848.920609828814
* Transfer network from port 3 to port 4
R4_3 nt_p_3 nt_c_4 58.05807012875183
X301 nt_n_3 nt_c_4 rl_admittance res=99.62112629631521 ind=8.621288511396595e-06
X302 nt_n_3 nt_c_4 rl_admittance res=161.9573820980195 ind=6.190462831565413e-05
X303 nt_n_3 nt_c_4 rl_admittance res=988.6554853245523 ind=0.0008299901094198562
X304 nt_n_3 nt_c_4 rl_admittance res=1678246.0287768312 ind=57.09980992679783
X305 nt_n_3 nt_c_4 rl_admittance res=1238943.674347752 ind=412.5289767829956
X306 nt_n_3 nt_c_4 rl_admittance res=3118975.674516276 ind=12110.539232972524
* Transfer network from port 4 to port 4