* EQUIVALENT CIRCUIT FOR VECTOR FITTED S-MATRIX
* Created using scikit-rf vectorFitting.py

.SUBCKT s_equivalent p1 p2 p3 p4 p5 p6 p7 p8 p9 p10 p11 p12 p13 p14 p15 p16 p17 p18

* Port network for port 1
R_ref_1 p1 a1 50.0
H_b_1 a1 0 V_c_1 14.142135623730951
* Differential incident wave a sources for transfer from port 1
H_p_1 nt_p_1 nts_p_1 H_b_1 3.5355339059327378
E_p_1 nts_p_1 0 p1 0 0.07071067811865475
E_n_1 0 nt_n_1 nt_p_1 0 1
* Current sensor on center node for transfer to port 1
V_c_1 nt_c_1 0 0
* Transfer network from port 1 to port 1
R1_1 nt_p_1 nt_c_1 0.0007564900050830436
X1 nt_p_1 nt_c_1 rl_admittance res=6.713812060922877e+16 ind=0.01239433452121846
X2 nt_n_1 nt_c_1 rl_admittance res=0.00045787217518182793 ind=2.0503953265122565e-14
X3 nt_p_1 nt_c_1 rl_admittance res=0.00054254751817662 ind=7.679384261163742e-14
X4 nt_p_1 nt_c_1 rl_admittance res=0.0005564228350387422 ind=3.0785512135842906e-13
X5 nt_n_1 nt_c_1 rl_admittance res=0.0005055304090704312 ind=1.4305226916553906e-13
X6 nt_n_1 nt_c_1 rl_admittance res=0.00047272890640632993 ind=8.643258284073119e-13
* Transfer network from port 2 to port 1
R1_2 nt_n_2 nt_c_1 0.003124999999999963
X7 nt_n_2 nt_c_1 rl_admittance res=2.7733601307884586e+17 ind=0.05119886123842035
X8 nt_p_2 nt_c_1 rl_admittance res=187800143092.54297 ind=8.409869753766284
X9 nt_p_2 nt_c_1 rl_admittance res=2830864960247.9546 ind=400.6893238451989
X10 nt_p_2 nt_c_1 rl_admittance res=63732557064.23586 ind=35.261662271871394
X11 nt_n_2 nt_c_1 rl_admittance res=112799484372.98152 ind=31.919389834390056
X12 nt_n_2 nt_c_1 rl_admittance res=51262611157.92125 ind=93.72728905498322
* Transfer network from port 3 to port 1
R1_3 nt_n_3 nt_c_1 0.003124999999999963
X13 nt_n_3 nt_c_1 rl_admittance res=2.7733601307884586e+17 ind=0.05119886123842035
X14 nt_p_3 nt_c_1 rl_admittance res=187800143092.54297 ind=8.409869753766284
X15 nt_p_3 nt_c_1 rl_admittance res=2830864960247.9546 ind=400.6893238451989
X16 nt_p_3 nt_c_1 rl_admittance res=63732557064.23586 ind=35.261662271871394
X17 nt_n_3 nt_c_1 rl_admittance res=112799484372.98152 ind=31.919389834390056
X18 nt_n_3 nt_c_1 rl_admittance res=51262611157.92125 ind=93.72728905498322
* Transfer network from port 4 to port 1
R1_4 nt_n_4 nt_c_1 0.003124999999999963
X19 nt_n_4 nt_c_1 rl_admittance res=2.7733601307884586e+17 ind=0.05119886123842035
X20 nt_p_4 nt_c_1 rl_admittance res=187800143092.54297 ind=8.409869753766284
X21 nt_p_4 nt_c_1 rl_admittance res=2830864960247.9546 ind=400.6893238451989
X22 nt_p_4 nt_c_1 rl_admittance res=63732557064.23586 ind=35.261662271871394
X23 nt_n_4 nt_c_1 rl_admittance res=112799484372.98152 ind=31.919389834390056
X24 nt_n_4 nt_c_1 rl_admittance res=51262611157.92125 ind=93.72728905498322
* Transfer network from port 5 to port 1
R1_5 nt_n_5 nt_c_1 0.003124999999999963
X25 nt_n_5 nt_c_1 rl_admittance res=2.7733601307884586e+17 ind=0.05119886123842035
X26 nt_p_5 nt_c_1 rl_admittance res=187800143092.54297 ind=8.409869753766284
X27 nt_p_5 nt_c_1 rl_admittance res=2830864960247.9546 ind=400.6893238451989
X28 nt_p_5 nt_c_1 rl_admittance res=63732557064.23586 ind=35.261662271871394
X29 nt_n_5 nt_c_1 rl_admittance res=112799484372.98152 ind=31.919389834390056
X30 nt_n_5 nt_c_1 rl_admittance res=51262611157.92125 ind=93.72728905498322
* Transfer network from port 6 to port 1
R1_6 nt_n_6 nt_c_1 0.003124999999999963
X31 nt_n_6 nt_c_1 rl_admittance res=2.7733601307884586e+17 ind=0.05119886123842035
X32 nt_p_6 nt_c_1 rl_admittance res=187800143092.54297 ind=8.409869753766284
X33 nt_p_6 nt_c_1 rl_admittance res=2830864960247.9546 ind=400.6893238451989
X34 nt_p_6 nt_c_1 rl_admittance res=63732557064.23586 ind=35.261662271871394
X35 nt_n_6 nt_c_1 rl_admittance res=112799484372.98152 ind=31.919389834390056
X36 nt_n_6 nt_c_1 rl_admittance res=51262611157.92125 ind=93.72728905498322
* Transfer network from port 7 to port 1
R1_7 nt_n_7 nt_c_1 0.003124999999999963
X37 nt_n_7 nt_c_1 rl_admittance res=2.7733601307884586e+17 ind=0.05119886123842035
X38 nt_p_7 nt_c_1 rl_admittance res=187800143092.54297 ind=8.409869753766284
X39 nt_p_7 nt_c_1 rl_admittance res=2830864960247.9546 ind=400.6893238451989
X40 nt_p_7 nt_c_1 rl_admittance res=63732557064.23586 ind=35.261662271871394
X41 nt_n_7 nt_c_1 rl_admittance res=112799484372.98152 ind=31.919389834390056
X42 nt_n_7 nt_c_1 rl_admittance res=51262611157.92125 ind=93.72728905498322
* Transfer network from port 8 to port 1
R1_8 nt_n_8 nt_c_1 0.003124999999999963
X43 nt_n_8 nt_c_1 rl_admittance res=2.7733601307884586e+17 ind=0.05119886123842035
X44 nt_p_8 nt_c_1 rl_admittance res=187800143092.54297 ind=8.409869753766284
X45 nt_p_8 nt_c_1 rl_admittance res=2830864960247.9546 ind=400.6893238451989
X46 nt_p_8 nt_c_1 rl_admittance res=63732557064.23586 ind=35.261662271871394
X47 nt_n_8 nt_c_1 rl_admittance res=112799484372.98152 ind=31.919389834390056
X48 nt_n_8 nt_c_1 rl_admittance res=51262611157.92125 ind=93.72728905498322
* Transfer network from port 9 to port 1
R1_9 nt_n_9 nt_c_1 0.003124999999999963
X49 nt_n_9 nt_c_1 rl_admittance res=2.7733601307884586e+17 ind=0.05119886123842035
X50 nt_p_9 nt_c_1 rl_admittance res=187800143092.54297 ind=8.409869753766284
X51 nt_p_9 nt_c_1 rl_admittance res=2830864960247.9546 ind=400.6893238451989
X52 nt_p_9 nt_c_1 rl_admittance res=63732557064.23586 ind=35.261662271871394
X53 nt_n_9 nt_c_1 rl_admittance res=112799484372.98152 ind=31.919389834390056
X54 nt_n_9 nt_c_1 rl_admittance res=51262611157.92125 ind=93.72728905498322
* Transfer network from port 10 to port 1
R1_10 nt_n_10 nt_c_1 0.003124999999999963
X55 nt_n_10 nt_c_1 rl_admittance res=2.7733601307884586e+17 ind=0.05119886123842035
X56 nt_p_10 nt_c_1 rl_admittance res=187800143092.54297 ind=8.409869753766284
X57 nt_p_10 nt_c_1 rl_admittance res=2830864960247.9546 ind=400.6893238451989
X58 nt_p_10 nt_c_1 rl_admittance res=63732557064.23586 ind=35.261662271871394
X59 nt_n_10 nt_c_1 rl_admittance res=112799484372.98152 ind=31.919389834390056
X60 nt_n_10 nt_c_1 rl_admittance res=51262611157.92125 ind=93.72728905498322
* Transfer network from port 11 to port 1
R1_11 nt_n_11 nt_c_1 0.003124999999999963
X61 nt_n_11 nt_c_1 rl_admittance res=2.7733601307884586e+17 ind=0.05119886123842035
X62 nt_p_11 nt_c_1 rl_admittance res=187800143092.54297 ind=8.409869753766284
X63 nt_p_11 nt_c_1 rl_admittance res=2830864960247.9546 ind=400.6893238451989
X64 nt_p_11 nt_c_1 rl_admittance res=63732557064.23586 ind=35.261662271871394
X65 nt_n_11 nt_c_1 rl_admittance res=112799484372.98152 ind=31.919389834390056
X66 nt_n_11 nt_c_1 rl_admittance res=51262611157.92125 ind=93.72728905498322
* Transfer network from port 12 to port 1
R1_12 nt_n_12 nt_c_1 0.003124999999999963
X67 nt_n_12 nt_c_1 rl_admittance res=2.7733601307884586e+17 ind=0.05119886123842035
X68 nt_p_12 nt_c_1 rl_admittance res=187800143092.54297 ind=8.409869753766284
X69 nt_p_12 nt_c_1 rl_admittance res=2830864960247.9546 ind=400.6893238451989
X70 nt_p_12 nt_c_1 rl_admittance res=63732557064.23586 ind=35.261662271871394
X71 nt_n_12 nt_c_1 rl_admittance res=112799484372.98152 ind=31.919389834390056
X72 nt_n_12 nt_c_1 rl_admittance res=51262611157.92125 ind=93.72728905498322
* Transfer network from port 13 to port 1
R1_13 nt_n_13 nt_c_1 0.003124999999999963
X73 nt_n_13 nt_c_1 rl_admittance res=2.7733601307884586e+17 ind=0.05119886123842035
X74 nt_p_13 nt_c_1 rl_admittance res=187800143092.54297 ind=8.409869753766284
X75 nt_p_13 nt_c_1 rl_admittance res=2830864960247.9546 ind=400.6893238451989
X76 nt_p_13 nt_c_1 rl_admittance res=63732557064.23586 ind=35.261662271871394
X77 nt_n_13 nt_c_1 rl_admittance res=112799484372.98152 ind=31.919389834390056
X78 nt_n_13 nt_c_1 rl_admittance res=51262611157.92125 ind=93.72728905498322
* Transfer network from port 14 to port 1
R1_14 nt_n_14 nt_c_1 0.003124999999999963
X79 nt_n_14 nt_c_1 rl_admittance res=2.7733601307884586e+17 ind=0.05119886123842035
X80 nt_p_14 nt_c_1 rl_admittance res=187800143092.54297 ind=8.409869753766284
X81 nt_p_14 nt_c_1 rl_admittance res=2830864960247.9546 ind=400.6893238451989
X82 nt_p_14 nt_c_1 rl_admittance res=63732557064.23586 ind=35.261662271871394
X83 nt_n_14 nt_c_1 rl_admittance res=112799484372.98152 ind=31.919389834390056
X84 nt_n_14 nt_c_1 rl_admittance res=51262611157.92125 ind=93.72728905498322
* Transfer network from port 15 to port 1
R1_15 nt_n_15 nt_c_1 0.003124999999999963
X85 nt_n_15 nt_c_1 rl_admittance res=2.7733601307884586e+17 ind=0.05119886123842035
X86 nt_p_15 nt_c_1 rl_admittance res=187800143092.54297 ind=8.409869753766284
X87 nt_p_15 nt_c_1 rl_admittance res=2830864960247.9546 ind=400.6893238451989
X88 nt_p_15 nt_c_1 rl_admittance res=63732557064.23586 ind=35.261662271871394
X89 nt_n_15 nt_c_1 rl_admittance res=112799484372.98152 ind=31.919389834390056
X90 nt_n_15 nt_c_1 rl_admittance res=51262611157.92125 ind=93.72728905498322
* Transfer network from port 16 to port 1
R1_16 nt_n_16 nt_c_1 0.003124999999999963
X91 nt_n_16 nt_c_1 rl_admittance res=2.7733601307884586e+17 ind=0.05119886123842035
X92 nt_p_16 nt_c_1 rl_admittance res=187800143092.54297 ind=8.409869753766284
X93 nt_p_16 nt_c_1 rl_admittance res=2830864960247.9546 ind=400.6893238451989
X94 nt_p_16 nt_c_1 rl_admittance res=63732557064.23586 ind=35.261662271871394
X95 nt_n_16 nt_c_1 rl_admittance res=112799484372.98152 ind=31.919389834390056
X96 nt_n_16 nt_c_1 rl_admittance res=51262611157.92125 ind=93.72728905498322
* Transfer network from port 17 to port 1
R1_17 nt_n_17 nt_c_1 0.003124999999999963
X97 nt_n_17 nt_c_1 rl_admittance res=2.7733601307884586e+17 ind=0.05119886123842035
X98 nt_p_17 nt_c_1 rl_admittance res=187800143092.54297 ind=8.409869753766284
X99 nt_p_17 nt_c_1 rl_admittance res=2830864960247.9546 ind=400.6893238451989
X100 nt_p_17 nt_c_1 rl_admittance res=63732557064.23586 ind=35.261662271871394
X101 nt_n_17 nt_c_1 rl_admittance res=112799484372.98152 ind=31.919389834390056
X102 nt_n_17 nt_c_1 rl_admittance res=51262611157.92125 ind=93.72728905498322
* Transfer network from port 18 to port 1
R1_18 nt_n_18 nt_c_1 0.003124999999999963
X103 nt_n_18 nt_c_1 rl_admittance res=2.7733601307884586e+17 ind=0.05119886123842035
X104 nt_p_18 nt_c_1 rl_admittance res=187800143092.54297 ind=8.409869753766284
X105 nt_p_18 nt_c_1 rl_admittance res=2830864960247.9546 ind=400.6893238451989
X106 nt_p_18 nt_c_1 rl_admittance res=63732557064.23586 ind=35.261662271871394
X107 nt_n_18 nt_c_1 rl_admittance res=112799484372.98152 ind=31.919389834390056
X108 nt_n_18 nt_c_1 rl_admittance res=51262611157.92125 ind=93.72728905498322

* Port network for port 2
R_ref_2 p2 a2 50.0
H_b_2 a2 0 V_c_2 14.142135623730951
* Differential incident wave a sources for transfer from port 2
H_p_2 nt_p_2 nts_p_2 H_b_2 3.5355339059327378
E_p_2 nts_p_2 0 p2 0 0.07071067811865475
E_n_2 0 nt_n_2 nt_p_2 0 1
* Current sensor on center node for transfer to port 2
V_c_2 nt_c_2 0 0
* Transfer network from port 1 to port 2
R2_1 nt_n_1 nt_c_2 0.003124999999999963
X109 nt_n_1 nt_c_2 rl_admittance res=2.7733601307884586e+17 ind=0.05119886123842035
X110 nt_p_1 nt_c_2 rl_admittance res=187800143092.54297 ind=8.409869753766284
X111 nt_p_1 nt_c_2 rl_admittance res=2830864960247.9546 ind=400.6893238451989
X112 nt_p_1 nt_c_2 rl_admittance res=63732557064.23586 ind=35.261662271871394
X113 nt_n_1 nt_c_2 rl_admittance res=112799484372.98152 ind=31.919389834390056
X114 nt_n_1 nt_c_2 rl_admittance res=51262611157.92125 ind=93.72728905498322
* Transfer network from port 2 to port 2
R2_2 nt_p_2 nt_c_2 0.0007564900050830436
X115 nt_p_2 nt_c_2 rl_admittance res=6.713812060922877e+16 ind=0.01239433452121846
X116 nt_n_2 nt_c_2 rl_admittance res=0.00045787217518182793 ind=2.0503953265122565e-14
X117 nt_p_2 nt_c_2 rl_admittance res=0.00054254751817662 ind=7.679384261163742e-14
X118 nt_p_2 nt_c_2 rl_admittance res=0.0005564228350387422 ind=3.0785512135842906e-13
X119 nt_n_2 nt_c_2 rl_admittance res=0.0005055304090704312 ind=1.4305226916553906e-13
X120 nt_n_2 nt_c_2 rl_admittance res=0.00047272890640632993 ind=8.643258284073119e-13
* Transfer network from port 3 to port 2
R2_3 nt_n_3 nt_c_2 0.003124999999999963
X121 nt_n_3 nt_c_2 rl_admittance res=2.7733601307884586e+17 ind=0.05119886123842035
X122 nt_p_3 nt_c_2 rl_admittance res=187800143092.54297 ind=8.409869753766284
X123 nt_p_3 nt_c_2 rl_admittance res=2830864960247.9546 ind=400.6893238451989
X124 nt_p_3 nt_c_2 rl_admittance res=63732557064.23586 ind=35.261662271871394
X125 nt_n_3 nt_c_2 rl_admittance res=112799484372.98152 ind=31.919389834390056
X126 nt_n_3 nt_c_2 rl_admittance res=51262611157.92125 ind=93.72728905498322
* Transfer network from port 4 to port 2
R2_4 nt_n_4 nt_c_2 0.003124999999999963
X127 nt_n_4 nt_c_2 rl_admittance res=2.7733601307884586e+17 ind=0.05119886123842035
X128 nt_p_4 nt_c_2 rl_admittance res=187800143092.54297 ind=8.409869753766284
X129 nt_p_4 nt_c_2 rl_admittance res=2830864960247.9546 ind=400.6893238451989
X130 nt_p_4 nt_c_2 rl_admittance res=63732557064.23586 ind=35.261662271871394
X131 nt_n_4 nt_c_2 rl_admittance res=112799484372.98152 ind=31.919389834390056
X132 nt_n_4 nt_c_2 rl_admittance res=51262611157.92125 ind=93.72728905498322
* Transfer network from port 5 to port 2
R2_5 nt_n_5 nt_c_2 0.003124999999999963
X133 nt_n_5 nt_c_2 rl_admittance res=2.7733601307884586e+17 ind=0.05119886123842035
X134 nt_p_5 nt_c_2 rl_admittance res=187800143092.54297 ind=8.409869753766284
X135 nt_p_5 nt_c_2 rl_admittance res=2830864960247.9546 ind=400.6893238451989
X136 nt_p_5 nt_c_2 rl_admittance res=63732557064.23586 ind=35.261662271871394
X137 nt_n_5 nt_c_2 rl_admittance res=112799484372.98152 ind=31.919389834390056
X138 nt_n_5 nt_c_2 rl_admittance res=51262611157.92125 ind=93.72728905498322
* Transfer network from port 6 to port 2
R2_6 nt_n_6 nt_c_2 0.003124999999999963
X139 nt_n_6 nt_c_2 rl_admittance res=2.7733601307884586e+17 ind=0.05119886123842035
X140 nt_p_6 nt_c_2 rl_admittance res=187800143092.54297 ind=8.409869753766284
X141 nt_p_6 nt_c_2 rl_admittance res=2830864960247.9546 ind=400.6893238451989
X142 nt_p_6 nt_c_2 rl_admittance res=63732557064.23586 ind=35.261662271871394
X143 nt_n_6 nt_c_2 rl_admittance res=112799484372.98152 ind=31.919389834390056
X144 nt_n_6 nt_c_2 rl_admittance res=51262611157.92125 ind=93.72728905498322
* Transfer network from port 7 to port 2
R2_7 nt_n_7 nt_c_2 0.003124999999999963
X145 nt_n_7 nt_c_2 rl_admittance res=2.7733601307884586e+17 ind=0.05119886123842035
X146 nt_p_7 nt_c_2 rl_admittance res=187800143092.54297 ind=8.409869753766284
X147 nt_p_7 nt_c_2 rl_admittance res=2830864960247.9546 ind=400.6893238451989
X148 nt_p_7 nt_c_2 rl_admittance res=63732557064.23586 ind=35.261662271871394
X149 nt_n_7 nt_c_2 rl_admittance res=112799484372.98152 ind=31.919389834390056
X150 nt_n_7 nt_c_2 rl_admittance res=51262611157.92125 ind=93.72728905498322
* Transfer network from port 8 to port 2
R2_8 nt_n_8 nt_c_2 0.003124999999999963
X151 nt_n_8 nt_c_2 rl_admittance res=2.7733601307884586e+17 ind=0.05119886123842035
X152 nt_p_8 nt_c_2 rl_admittance res=187800143092.54297 ind=8.409869753766284
X153 nt_p_8 nt_c_2 rl_admittance res=2830864960247.9546 ind=400.6893238451989
X154 nt_p_8 nt_c_2 rl_admittance res=63732557064.23586 ind=35.261662271871394
X155 nt_n_8 nt_c_2 rl_admittance res=112799484372.98152 ind=31.919389834390056
X156 nt_n_8 nt_c_2 rl_admittance res=51262611157.92125 ind=93.72728905498322
* Transfer network from port 9 to port 2
R2_9 nt_n_9 nt_c_2 0.003124999999999963
X157 nt_n_9 nt_c_2 rl_admittance res=2.7733601307884586e+17 ind=0.05119886123842035
X158 nt_p_9 nt_c_2 rl_admittance res=187800143092.54297 ind=8.409869753766284
X159 nt_p_9 nt_c_2 rl_admittance res=2830864960247.9546 ind=400.6893238451989
X160 nt_p_9 nt_c_2 rl_admittance res=63732557064.23586 ind=35.261662271871394
X161 nt_n_9 nt_c_2 rl_admittance res=112799484372.98152 ind=31.919389834390056
X162 nt_n_9 nt_c_2 rl_admittance res=51262611157.92125 ind=93.72728905498322
* Transfer network from port 10 to port 2
R2_10 nt_n_10 nt_c_2 0.003124999999999963
X163 nt_n_10 nt_c_2 rl_admittance res=2.7733601307884586e+17 ind=0.05119886123842035
X164 nt_p_10 nt_c_2 rl_admittance res=187800143092.54297 ind=8.409869753766284
X165 nt_p_10 nt_c_2 rl_admittance res=2830864960247.9546 ind=400.6893238451989
X166 nt_p_10 nt_c_2 rl_admittance res=63732557064.23586 ind=35.261662271871394
X167 nt_n_10 nt_c_2 rl_admittance res=112799484372.98152 ind=31.919389834390056
X168 nt_n_10 nt_c_2 rl_admittance res=51262611157.92125 ind=93.72728905498322
* Transfer network from port 11 to port 2
R2_11 nt_n_11 nt_c_2 0.003124999999999963
X169 nt_n_11 nt_c_2 rl_admittance res=2.7733601307884586e+17 ind=0.05119886123842035
X170 nt_p_11 nt_c_2 rl_admittance res=187800143092.54297 ind=8.409869753766284
X171 nt_p_11 nt_c_2 rl_admittance res=2830864960247.9546 ind=400.6893238451989
X172 nt_p_11 nt_c_2 rl_admittance res=63732557064.23586 ind=35.261662271871394
X173 nt_n_11 nt_c_2 rl_admittance res=112799484372.98152 ind=31.919389834390056
X174 nt_n_11 nt_c_2 rl_admittance res=51262611157.92125 ind=93.72728905498322
* Transfer network from port 12 to port 2
R2_12 nt_n_12 nt_c_2 0.003124999999999963
X175 nt_n_12 nt_c_2 rl_admittance res=2.7733601307884586e+17 ind=0.05119886123842035
X176 nt_p_12 nt_c_2 rl_admittance res=187800143092.54297 ind=8.409869753766284
X177 nt_p_12 nt_c_2 rl_admittance res=2830864960247.9546 ind=400.6893238451989
X178 nt_p_12 nt_c_2 rl_admittance res=63732557064.23586 ind=35.261662271871394
X179 nt_n_12 nt_c_2 rl_admittance res=112799484372.98152 ind=31.919389834390056
X180 nt_n_12 nt_c_2 rl_admittance res=51262611157.92125 ind=93.72728905498322
* Transfer network from port 13 to port 2
R2_13 nt_n_13 nt_c_2 0.003124999999999963
X181 nt_n_13 nt_c_2 rl_admittance res=2.7733601307884586e+17 ind=0.05119886123842035
X182 nt_p_13 nt_c_2 rl_admittance res=187800143092.54297 ind=8.409869753766284
X183 nt_p_13 nt_c_2 rl_admittance res=2830864960247.9546 ind=400.6893238451989
X184 nt_p_13 nt_c_2 rl_admittance res=63732557064.23586 ind=35.261662271871394
X185 nt_n_13 nt_c_2 rl_admittance res=112799484372.98152 ind=31.919389834390056
X186 nt_n_13 nt_c_2 rl_admittance res=51262611157.92125 ind=93.72728905498322
* Transfer network from port 14 to port 2
R2_14 nt_n_14 nt_c_2 0.003124999999999963
X187 nt_n_14 nt_c_2 rl_admittance res=2.7733601307884586e+17 ind=0.05119886123842035
X188 nt_p_14 nt_c_2 rl_admittance res=187800143092.54297 ind=8.409869753766284
X189 nt_p_14 nt_c_2 rl_admittance res=2830864960247.9546 ind=400.6893238451989
X190 nt_p_14 nt_c_2 rl_admittance res=63732557064.23586 ind=35.261662271871394
X191 nt_n_14 nt_c_2 rl_admittance res=112799484372.98152 ind=31.919389834390056
X192 nt_n_14 nt_c_2 rl_admittance res=51262611157.92125 ind=93.72728905498322
* Transfer network from port 15 to port 2
R2_15 nt_n_15 nt_c_2 0.003124999999999963
X193 nt_n_15 nt_c_2 rl_admittance res=2.7733601307884586e+17 ind=0.05119886123842035
X194 nt_p_15 nt_c_2 rl_admittance res=187800143092.54297 ind=8.409869753766284
X195 nt_p_15 nt_c_2 rl_admittance res=2830864960247.9546 ind=400.6893238451989
X196 nt_p_15 nt_c_2 rl_admittance res=63732557064.23586 ind=35.261662271871394
X197 nt_n_15 nt_c_2 rl_admittance res=112799484372.98152 ind=31.919389834390056
X198 nt_n_15 nt_c_2 rl_admittance res=51262611157.92125 ind=93.72728905498322
* Transfer network from port 16 to port 2
R2_16 nt_n_16 nt_c_2 0.003124999999999963
X199 nt_n_16 nt_c_2 rl_admittance res=2.7733601307884586e+17 ind=0.05119886123842035
X200 nt_p_16 nt_c_2 rl_admittance res=187800143092.54297 ind=8.409869753766284
X201 nt_p_16 nt_c_2 rl_admittance res=2830864960247.9546 ind=400.6893238451989
X202 nt_p_16 nt_c_2 rl_admittance res=63732557064.23586 ind=35.261662271871394
X203 nt_n_16 nt_c_2 rl_admittance res=112799484372.98152 ind=31.919389834390056
X204 nt_n_16 nt_c_2 rl_admittance res=51262611157.92125 ind=93.72728905498322
* Transfer network from port 17 to port 2
R2_17 nt_n_17 nt_c_2 0.003124999999999963
X205 nt_n_17 nt_c_2 rl_admittance res=2.7733601307884586e+17 ind=0.05119886123842035
X206 nt_p_17 nt_c_2 rl_admittance res=187800143092.54297 ind=8.409869753766284
X207 nt_p_17 nt_c_2 rl_admittance res=2830864960247.9546 ind=400.6893238451989
X208 nt_p_17 nt_c_2 rl_admittance res=63732557064.23586 ind=35.261662271871394
X209 nt_n_17 nt_c_2 rl_admittance res=112799484372.98152 ind=31.919389834390056
X210 nt_n_17 nt_c_2 rl_admittance res=51262611157.92125 ind=93.72728905498322
* Transfer network from port 18 to port 2
R2_18 nt_n_18 nt_c_2 0.003124999999999963
X211 nt_n_18 nt_c_2 rl_admittance res=2.7733601307884586e+17 ind=0.05119886123842035
X212 nt_p_18 nt_c_2 rl_admittance res=187800143092.54297 ind=8.409869753766284
X213 nt_p_18 nt_c_2 rl_admittance res=2830864960247.9546 ind=400.6893238451989
X214 nt_p_18 nt_c_2 rl_admittance res=63732557064.23586 ind=35.261662271871394
X215 nt_n_18 nt_c_2 rl_admittance res=112799484372.98152 ind=31.919389834390056
X216 nt_n_18 nt_c_2 rl_admittance res=51262611157.92125 ind=93.72728905498322

* Port network for port 3
R_ref_3 p3 a3 50.0
H_b_3 a3 0 V_c_3 14.142135623730951
* Differential incident wave a sources for transfer from port 3
H_p_3 nt_p_3 nts_p_3 H_b_3 3.5355339059327378
E_p_3 nts_p_3 0 p3 0 0.07071067811865475
E_n_3 0 nt_n_3 nt_p_3 0 1
* Current sensor on center node for transfer to port 3
V_c_3 nt_c_3 0 0
* Transfer network from port 1 to port 3
R3_1 nt_n_1 nt_c_3 0.003124999999999963
X217 nt_n_1 nt_c_3 rl_admittance res=2.7733601307884586e+17 ind=0.05119886123842035
X218 nt_p_1 nt_c_3 rl_admittance res=187800143092.54297 ind=8.409869753766284
X219 nt_p_1 nt_c_3 rl_admittance res=2830864960247.9546 ind=400.6893238451989
X220 nt_p_1 nt_c_3 rl_admittance res=63732557064.23586 ind=35.261662271871394
X221 nt_n_1 nt_c_3 rl_admittance res=112799484372.98152 ind=31.919389834390056
X222 nt_n_1 nt_c_3 rl_admittance res=51262611157.92125 ind=93.72728905498322
* Transfer network from port 2 to port 3
R3_2 nt_n_2 nt_c_3 0.003124999999999963
X223 nt_n_2 nt_c_3 rl_admittance res=2.7733601307884586e+17 ind=0.05119886123842035
X224 nt_p_2 nt_c_3 rl_admittance res=187800143092.54297 ind=8.409869753766284
X225 nt_p_2 nt_c_3 rl_admittance res=2830864960247.9546 ind=400.6893238451989
X226 nt_p_2 nt_c_3 rl_admittance res=63732557064.23586 ind=35.261662271871394
X227 nt_n_2 nt_c_3 rl_admittance res=112799484372.98152 ind=31.919389834390056
X228 nt_n_2 nt_c_3 rl_admittance res=51262611157.92125 ind=93.72728905498322
* Transfer network from port 3 to port 3
R3_3 nt_p_3 nt_c_3 0.0007564900050830436
X229 nt_p_3 nt_c_3 rl_admittance res=6.713812060922877e+16 ind=0.01239433452121846
X230 nt_n_3 nt_c_3 rl_admittance res=0.00045787217518182793 ind=2.0503953265122565e-14
X231 nt_p_3 nt_c_3 rl_admittance res=0.00054254751817662 ind=7.679384261163742e-14
X232 nt_p_3 nt_c_3 rl_admittance res=0.0005564228350387422 ind=3.0785512135842906e-13
X233 nt_n_3 nt_c_3 rl_admittance res=0.0005055304090704312 ind=1.4305226916553906e-13
X234 nt_n_3 nt_c_3 rl_admittance res=0.00047272890640632993 ind=8.643258284073119e-13
* Transfer network from port 4 to port 3
R3_4 nt_n_4 nt_c_3 0.003124999999999963
X235 nt_n_4 nt_c_3 rl_admittance res=2.7733601307884586e+17 ind=0.05119886123842035
X236 nt_p_4 nt_c_3 rl_admittance res=187800143092.54297 ind=8.409869753766284
X237 nt_p_4 nt_c_3 rl_admittance res=2830864960247.9546 ind=400.6893238451989
X238 nt_p_4 nt_c_3 rl_admittance res=63732557064.23586 ind=35.261662271871394
X239 nt_n_4 nt_c_3 rl_admittance res=112799484372.98152 ind=31.919389834390056
X240 nt_n_4 nt_c_3 rl_admittance res=51262611157.92125 ind=93.72728905498322
* Transfer network from port 5 to port 3
R3_5 nt_n_5 nt_c_3 0.003124999999999963
X241 nt_n_5 nt_c_3 rl_admittance res=2.7733601307884586e+17 ind=0.05119886123842035
X242 nt_p_5 nt_c_3 rl_admittance res=187800143092.54297 ind=8.409869753766284
X243 nt_p_5 nt_c_3 rl_admittance res=2830864960247.9546 ind=400.6893238451989
X244 nt_p_5 nt_c_3 rl_admittance res=63732557064.23586 ind=35.261662271871394
X245 nt_n_5 nt_c_3 rl_admittance res=112799484372.98152 ind=31.919389834390056
X246 nt_n_5 nt_c_3 rl_admittance res=51262611157.92125 ind=93.72728905498322
* Transfer network from port 6 to port 3
R3_6 nt_n_6 nt_c_3 0.003124999999999963
X247 nt_n_6 nt_c_3 rl_admittance res=2.7733601307884586e+17 ind=0.05119886123842035
X248 nt_p_6 nt_c_3 rl_admittance res=187800143092.54297 ind=8.409869753766284
X249 nt_p_6 nt_c_3 rl_admittance res=2830864960247.9546 ind=400.6893238451989
X250 nt_p_6 nt_c_3 rl_admittance res=63732557064.23586 ind=35.261662271871394
X251 nt_n_6 nt_c_3 rl_admittance res=112799484372.98152 ind=31.919389834390056
X252 nt_n_6 nt_c_3 rl_admittance res=51262611157.92125 ind=93.72728905498322
* Transfer network from port 7 to port 3
R3_7 nt_n_7 nt_c_3 0.003124999999999963
X253 nt_n_7 nt_c_3 rl_admittance res=2.7733601307884586e+17 ind=0.05119886123842035
X254 nt_p_7 nt_c_3 rl_admittance res=187800143092.54297 ind=8.409869753766284
X255 nt_p_7 nt_c_3 rl_admittance res=2830864960247.9546 ind=400.6893238451989
X256 nt_p_7 nt_c_3 rl_admittance res=63732557064.23586 ind=35.261662271871394
X257 nt_n_7 nt_c_3 rl_admittance res=112799484372.98152 ind=31.919389834390056
X258 nt_n_7 nt_c_3 rl_admittance res=51262611157.92125 ind=93.72728905498322
* Transfer network from port 8 to port 3
R3_8 nt_n_8 nt_c_3 0.003124999999999963
X259 nt_n_8 nt_c_3 rl_admittance res=2.7733601307884586e+17 ind=0.05119886123842035
X260 nt_p_8 nt_c_3 rl_admittance res=187800143092.54297 ind=8.409869753766284
X261 nt_p_8 nt_c_3 rl_admittance res=2830864960247.9546 ind=400.6893238451989
X262 nt_p_8 nt_c_3 rl_admittance res=63732557064.23586 ind=35.261662271871394
X263 nt_n_8 nt_c_3 rl_admittance res=112799484372.98152 ind=31.919389834390056
X264 nt_n_8 nt_c_3 rl_admittance res=51262611157.92125 ind=93.72728905498322
* Transfer network from port 9 to port 3
R3_9 nt_n_9 nt_c_3 0.003124999999999963
X265 nt_n_9 nt_c_3 rl_admittance res=2.7733601307884586e+17 ind=0.05119886123842035
X266 nt_p_9 nt_c_3 rl_admittance res=187800143092.54297 ind=8.409869753766284
X267 nt_p_9 nt_c_3 rl_admittance res=2830864960247.9546 ind=400.6893238451989
X268 nt_p_9 nt_c_3 rl_admittance res=63732557064.23586 ind=35.261662271871394
X269 nt_n_9 nt_c_3 rl_admittance res=112799484372.98152 ind=31.919389834390056
X270 nt_n_9 nt_c_3 rl_admittance res=51262611157.92125 ind=93.72728905498322
* Transfer network from port 10 to port 3
R3_10 nt_n_10 nt_c_3 0.003124999999999963
X271 nt_n_10 nt_c_3 rl_admittance res=2.7733601307884586e+17 ind=0.05119886123842035
X272 nt_p_10 nt_c_3 rl_admittance res=187800143092.54297 ind=8.409869753766284
X273 nt_p_10 nt_c_3 rl_admittance res=2830864960247.9546 ind=400.6893238451989
X274 nt_p_10 nt_c_3 rl_admittance res=63732557064.23586 ind=35.261662271871394
X275 nt_n_10 nt_c_3 rl_admittance res=112799484372.98152 ind=31.919389834390056
X276 nt_n_10 nt_c_3 rl_admittance res=51262611157.92125 ind=93.72728905498322
* Transfer network from port 11 to port 3
R3_11 nt_n_11 nt_c_3 0.003124999999999963
X277 nt_n_11 nt_c_3 rl_admittance res=2.7733601307884586e+17 ind=0.05119886123842035
X278 nt_p_11 nt_c_3 rl_admittance res=187800143092.54297 ind=8.409869753766284
X279 nt_p_11 nt_c_3 rl_admittance res=2830864960247.9546 ind=400.6893238451989
X280 nt_p_11 nt_c_3 rl_admittance res=63732557064.23586 ind=35.261662271871394
X281 nt_n_11 nt_c_3 rl_admittance res=112799484372.98152 ind=31.919389834390056
X282 nt_n_11 nt_c_3 rl_admittance res=51262611157.92125 ind=93.72728905498322
* Transfer network from port 12 to port 3
R3_12 nt_n_12 nt_c_3 0.003124999999999963
X283 nt_n_12 nt_c_3 rl_admittance res=2.7733601307884586e+17 ind=0.05119886123842035
X284 nt_p_12 nt_c_3 rl_admittance res=187800143092.54297 ind=8.409869753766284
X285 nt_p_12 nt_c_3 rl_admittance res=2830864960247.9546 ind=400.6893238451989
X286 nt_p_12 nt_c_3 rl_admittance res=63732557064.23586 ind=35.261662271871394
X287 nt_n_12 nt_c_3 rl_admittance res=112799484372.98152 ind=31.919389834390056
X288 nt_n_12 nt_c_3 rl_admittance res=51262611157.92125 ind=93.72728905498322
* Transfer network from port 13 to port 3
R3_13 nt_n_13 nt_c_3 0.003124999999999963
X289 nt_n_13 nt_c_3 rl_admittance res=2.7733601307884586e+17 ind=0.05119886123842035
X290 nt_p_13 nt_c_3 rl_admittance res=187800143092.54297 ind=8.409869753766284
X291 nt_p_13 nt_c_3 rl_admittance res=2830864960247.9546 ind=400.6893238451989
X292 nt_p_13 nt_c_3 rl_admittance res=63732557064.23586 ind=35.261662271871394
X293 nt_n_13 nt_c_3 rl_admittance res=112799484372.98152 ind=31.919389834390056
X294 nt_n_13 nt_c_3 rl_admittance res=51262611157.92125 ind=93.72728905498322
* Transfer network from port 14 to port 3
R3_14 nt_n_14 nt_c_3 0.003124999999999963
X295 nt_n_14 nt_c_3 rl_admittance res=2.7733601307884586e+17 ind=0.05119886123842035
X296 nt_p_14 nt_c_3 rl_admittance res=187800143092.54297 ind=8.409869753766284
X297 nt_p_14 nt_c_3 rl_admittance res=2830864960247.9546 ind=400.6893238451989
X298 nt_p_14 nt_c_3 rl_admittance res=63732557064.23586 ind=35.261662271871394
X299 nt_n_14 nt_c_3 rl_admittance res=112799484372.98152 ind=31.919389834390056
X300 nt_n_14 nt_c_3 rl_admittance res=51262611157.92125 ind=93.72728905498322
* Transfer network from port 15 to port 3
R3_15 nt_n_15 nt_c_3 0.003124999999999963
X301 nt_n_15 nt_c_3 rl_admittance res=2.7733601307884586e+17 ind=0.05119886123842035
X302 nt_p_15 nt_c_3 rl_admittance res=187800143092.54297 ind=8.409869753766284
X303 nt_p_15 nt_c_3 rl_admittance res=2830864960247.9546 ind=400.6893238451989
X304 nt_p_15 nt_c_3 rl_admittance res=63732557064.23586 ind=35.261662271871394
X305 nt_n_15 nt_c_3 rl_admittance res=112799484372.98152 ind=31.919389834390056
X306 nt_n_15 nt_c_3 rl_admittance res=51262611157.92125 ind=93.72728905498322
* Transfer network from port 16 to port 3
R3_16 nt_n_16 nt_c_3 0.003124999999999963
X307 nt_n_16 nt_c_3 rl_admittance res=2.7733601307884586e+17 ind=0.05119886123842035
X308 nt_p_16 nt_c_3 rl_admittance res=187800143092.54297 ind=8.409869753766284